15
Coordinates from ORCA-job ./TOL
  C   1.00813961058534      0.99972516599972      0.00411860858572
  C   -0.50050156331313      1.00260691987841     -0.00100624879402
  C   -1.22847695313388      1.00164618184657      1.18982524503209
  C   -2.62143012836429      0.99730978052043      1.18063508809114
  C   -3.31197434824284      0.99443572878490     -0.02597274694063
  C   -2.59855498403244      0.99630186123577     -1.22241411189117
  C   -1.20861279050755      1.00061784770381     -1.20735977091630
  H   1.40162699239144      1.07766558571966      1.01853739003021
  H   1.40891700669804      1.83510347118425     -0.57595873384177
  H   1.40362046600536      0.08042778885514     -0.43712858192016
  H   -0.70006998687662      1.00485728147965      2.13702360198637
  H   -3.16524576519373      0.99710938387418      2.11808364009239
  H   -4.39527875932279      0.99172014949434     -0.03612983132531
  H   -3.12678500351337      0.99535644696642     -2.16878087524653
  H   -0.66337379317953      1.00311640645675     -2.14547267294205
