18
Coordinates from ORCA-job ./ETB
  C   1.01693843164215      1.00413124431959     -0.01154537878218
  C   -0.51979924094845      0.99718645266411     -0.00278779614046
  C   -1.10480618645667      0.99867348720668      1.39128461016854
  C   -1.38859011496761      2.19790508818855      2.05013751946055
  C   -1.89709015488058      2.20283656688067      3.34542681794241
  C   -2.13225957905591      1.00218772333079      4.00853446841849
  C   -1.85542071409819     -0.20039309165211      3.36493149819176
  C   -1.34693799238234     -0.19889812820934      2.06976435625525
  H   1.40103385251559      1.00341225020903     -1.03457129460620
  H   1.41568572999470      0.12560071273775      0.50061432258446
  H   1.40728592755630      1.88888483768752      0.49639084579849
  H   -0.87885563988756      0.11767582241157     -0.54495214301652
  H   -0.88670154878384      1.87040251493899     -0.54970470731967
  H   -1.21469156536332      3.13970366449467      1.54009783035110
  H   -2.11428348270414      3.14493044385182      3.83526166843776
  H   -2.53091250686458      1.00341775616096      5.01592398321874
  H   -2.04017768909211     -1.14131345222019      3.87008396184094
  H   -1.14041752622346     -1.14234389300106      1.57510943719650
