20
Coordinates from ORCA-job ./HEX
  C   1.03971559752159      1.00041044224591     -0.02641620471660
  C   -0.48976691683609      0.99936106647295     -0.00764831000210
  C   -1.07820741464892      0.99976746584335      1.40608710131364
  C   -2.60849132099283      0.99823680307338      1.43590891403147
  C   -3.19693031298506      0.99928971227169      2.84964378178009
  C   -4.72641261400909      0.99709801744338      2.86841436371857
  H   1.42719658705192      1.00039920218728     -1.04792144586923
  H   1.44117258979703      0.11882992566618      0.48110296209129
  H   1.43995374286332      1.88282664047284      0.48061534793005
  H   -0.86092300683853      0.12335984420064     -0.55129001548877
  H   -0.86214653067748      1.87421523679284     -0.55229606831563
  H   -0.70658391328711      1.87663628429434      1.95022456851567
  H   -0.70481345314685      0.12442962074169      1.95147367775376
  H   -2.98008405084532      0.12109972165405      0.89218364548250
  H   -2.98192129539319      1.87330873465983      0.89012029051715
  H   -2.82645148360179      1.87600701737696      3.39259215493218
  H   -2.82388640795874      0.12515282035999      3.39498924519487
  H   -5.12854275092676      1.87773113720513      2.35978289802347
  H   -5.11390222447853      0.99811257064046      3.88991748431431
  H   -5.12597482060755      0.11372773639710      2.36251560879330
