18
Coordinates from ORCA-job ./OXL
  C   0.99352007103648      1.00057717760071     -0.00603416669329
  C   -0.51418773118716      1.00054428240200      0.00785439540502
  C   -1.20380768972277      1.00210219532011      1.22110143724724
  C   -2.59456809867234      1.00011523263513      1.26746361897710
  C   -3.31864990690331      0.99676743912558      0.08227666297272
  C   -2.64267748056446      0.99529599823303     -1.13402318765485
  C   -1.24846212865488      0.99698148936075     -1.19398798849043
  C   -0.54913334144033      0.99461815488073     -2.52988076638184
  H   1.39364418473800      1.02451406242429      1.00809783679616
  H   1.39276620529565      1.86558555228779     -0.54377704871109
  H   1.39221938004262      0.11010600401500     -0.50154880812954
  H   -0.63888689464581      1.00524848829280      2.14716613077347
  H   -3.10542531793036      1.00143171012216      2.22301072737932
  H   -4.40202710746336      0.99537939753579      0.10061301020033
  H   -3.20865625558121      0.99270531362320     -2.05944504455194
  H   -1.27043783797088      0.98999015227673     -3.34774185648988
  H   0.09483408619585      0.11786020340608     -2.64768756338319
  H   0.08993586342827      1.87417714645813     -2.65345738926529
