24
Coordinates from ORCA-job ./PDB
  C   0.96893410783266      0.99003387619156     -0.15192670306315
  C   -0.55803919314261      1.00010855006929      0.02099097172191
  C   -0.99450526229122      1.00608572410098      1.46796124666100
  C   -1.19919991927897      2.20364030967267      2.15664147895280
  C   -1.56534577896083      2.20933715599993      3.49826962416918
  C   -1.74199661062607      1.01759636595911      4.20463396675838
  C   -2.17934622448199      1.02356697284822      5.65139778402521
  C   -3.70636872511718      1.03238225907879      5.82285084560408
  C   -1.53716279979386     -0.17999718376254      3.51599643121469
  C   -1.17102180760505     -0.18567581355095      2.17439010668379
  H   1.24203539094061      0.98540548957396     -1.21018619547137
  H   1.41094548316239      0.10682386648165      0.31485478904434
  H   1.42159994482772      1.87034937192322      0.31013058438937
  H   -0.98173656311797      0.12554229680935     -0.48136576849059
  H   -0.97045988490791      1.87798026875710     -0.48473721859167
  H   -1.07066172869228      3.14711630994708      1.63594941847833
  H   -1.71530267016081      3.15737345548964      4.00479298162103
  H   -1.75672433513949      1.89858714159756      6.15385101388857
  H   -1.76653356180229      0.14612806943813      6.15757150466049
  H   -4.14885990097526      1.91513336702063      5.35566524927341
  H   -3.98032923734785      1.03689744389700      6.88092516761495
  H   -4.15808220198660      0.15168747045973      5.36060777928148
  H   -1.66475008219722     -1.12344291297851      4.03697465780147
  H   -1.02108843913792     -1.13365985502362      1.66776028377229
